Version 4
SHEET 1 944 760
WIRE -80 160 -160 160
WIRE -16 160 -80 160
WIRE 128 160 64 160
WIRE 176 160 128 160
WIRE 304 160 256 160
WIRE -80 208 -80 160
WIRE 128 272 128 160
WIRE 160 272 128 272
WIRE 304 288 304 160
WIRE 304 288 224 288
WIRE 336 288 304 288
WIRE 160 304 128 304
WIRE -80 336 -80 288
WIRE 736 352 736 304
WIRE 880 352 880 304
WIRE 128 400 128 304
WIRE 736 464 736 432
WIRE 880 464 880 432
WIRE -128 528 -128 496
WIRE -16 528 -128 528
WIRE 128 528 128 480
WIRE 128 528 64 528
WIRE 128 560 128 528
WIRE -128 592 -128 528
WIRE 128 688 128 640
FLAG 736 464 0
FLAG 880 464 0
FLAG 736 304 VCC
FLAG 192 256 VCC
FLAG 880 304 -VCC
FLAG 192 320 -VCC
FLAG -80 336 0
FLAG 128 688 0
FLAG -128 416 VCC
FLAG -128 672 -VCC
FLAG 336 288 Vout
FLAG -160 160 Vin
SYMBOL AD8065 192 224 R0
SYMATTR InstName U1
SYMBOL voltage 736 336 R0
SYMATTR InstName V1
SYMATTR Value 15
SYMBOL voltage 880 336 R0
SYMATTR InstName V2
SYMATTR Value -15
SYMBOL Res 80 144 R90
WINDOW 0 0 56 VBottom 2
WINDOW 3 32 56 VTop 2
SYMATTR InstName R1
SYMATTR Value 10k
SYMBOL Res 272 144 R90
WINDOW 0 0 56 VBottom 2
WINDOW 3 32 56 VTop 2
SYMATTR InstName R2
SYMATTR Value 15k
SYMBOL Voltage -80 192 R0
SYMATTR InstName Vin
SYMATTR Value SINE(0 0.415 1k)
SYMBOL Res 112 384 R0
SYMATTR InstName Rc
SYMATTR Value 6k
SYMBOL Res 112 544 R0
SYMATTR InstName Rc1
SYMATTR Value 10k
SYMBOL Res 80 512 R90
WINDOW 0 0 56 VBottom 2
WINDOW 3 32 56 VTop 2
SYMATTR InstName Rc2
SYMATTR Value 10k
SYMBOL Res -144 576 R0
SYMATTR InstName R3
SYMATTR Value {Rtot*poz}
SYMBOL Res -144 400 R0
SYMATTR InstName R4
SYMATTR Value {Rtot*(1-poz)}
TEXT -296 24 Left 2 !.param Rtot=10k poz=0.519
TEXT -296 64 Left 2 !.tran 5m
